data_image0
_cell_length_a       14.07
_cell_length_b       14.07
_cell_length_c       14.07
_cell_angle_alpha    90
_cell_angle_beta     90
_cell_angle_gamma    90

_symmetry_space_group_name_H-M    "P 1"
_symmetry_int_tables_number       1

loop_
  _symmetry_equiv_pos_as_xyz
  'x, y, z'

loop_
  _atom_site_label
  _atom_site_occupancy
  _atom_site_fract_x
  _atom_site_fract_y
  _atom_site_fract_z
  _atom_site_thermal_displace_type
  _atom_site_B_iso_or_equiv
  _atom_site_type_symbol
  Zr1      1.0000 0.00006  0.99990  0.00009  Biso   1.000  Zr
  Zr2      1.0000 0.12504  0.12504  0.12500  Biso   1.000  Zr
  Zr3      1.0000 0.99997  0.99998  0.25010  Biso   1.000  Zr
  Zr4      1.0000 0.12512  0.12507  0.37496  Biso   1.000  Zr
  Zr5      1.0000 0.00003  0.00014  0.50002  Biso   1.000  Zr
  Zr6      1.0000 0.12507  0.12498  0.62496  Biso   1.000  Zr
  Zr7      1.0000 0.99995  0.99999  0.74999  Biso   1.000  Zr
  Zr8      1.0000 0.12500  0.12508  0.87497  Biso   1.000  Zr
  Zr9      1.0000 0.99998  0.25005  0.99996  Biso   1.000  Zr
  Zr10     1.0000 0.12497  0.37494  0.12504  Biso   1.000  Zr
  Zr11     1.0000 0.00002  0.25006  0.25000  Biso   1.000  Zr
  Zr12     1.0000 0.12499  0.37504  0.37489  Biso   1.000  Zr
  Zr13     1.0000 0.99997  0.25009  0.49997  Biso   1.000  Zr
  Zr14     1.0000 0.12498  0.37509  0.62494  Biso   1.000  Zr
  Zr15     1.0000 0.00006  0.24996  0.75004  Biso   1.000  Zr
  Zr16     1.0000 0.12501  0.37493  0.87491  Biso   1.000  Zr
  Zr17     1.0000 0.99993  0.49991  1.00000  Biso   1.000  Zr
  Zr18     1.0000 0.12504  0.62490  0.12503  Biso   1.000  Zr
  Zr19     1.0000 0.99995  0.50006  0.24992  Biso   1.000  Zr
  Zr20     1.0000 0.12494  0.62491  0.37496  Biso   1.000  Zr
  Zr21     1.0000 0.99998  0.50006  0.50010  Biso   1.000  Zr
  Zr22     1.0000 0.12498  0.62504  0.62502  Biso   1.000  Zr
  Zr23     1.0000 0.00006  0.50003  0.75005  Biso   1.000  Zr
  Zr24     1.0000 0.12510  0.62504  0.87505  Biso   1.000  Zr
  Zr25     1.0000 0.99987  0.75013  0.99997  Biso   1.000  Zr
  Zr26     1.0000 0.12493  0.87502  0.12497  Biso   1.000  Zr
  Zr27     1.0000 0.99992  0.74993  0.24997  Biso   1.000  Zr
  Zr28     1.0000 0.12491  0.87496  0.37508  Biso   1.000  Zr
  Zr29     1.0000 0.00009  0.75001  0.49999  Biso   1.000  Zr
  Zr30     1.0000 0.12500  0.87512  0.62502  Biso   1.000  Zr
  Zr31     1.0000 0.00012  0.74997  0.75003  Biso   1.000  Zr
  Zr32     1.0000 0.12500  0.87506  0.87495  Biso   1.000  Zr
  Zr33     1.0000 0.24985  0.99993  0.00003  Biso   1.000  Zr
  Zr34     1.0000 0.37492  0.12501  0.12488  Biso   1.000  Zr
  Zr35     1.0000 0.25001  0.99996  0.25019  Biso   1.000  Zr
  Zr36     1.0000 0.37513  0.12508  0.37491  Biso   1.000  Zr
  Zr37     1.0000 0.24992  0.99993  0.50002  Biso   1.000  Zr
  Zr38     1.0000 0.37506  0.12486  0.62504  Biso   1.000  Zr
  Zr39     1.0000 0.24993  0.99999  0.75009  Biso   1.000  Zr
  Zr40     1.0000 0.37496  0.12496  0.87505  Biso   1.000  Zr
  Zr41     1.0000 0.25006  0.25008  0.00002  Biso   1.000  Zr
  Zr42     1.0000 0.37509  0.37506  0.12516  Biso   1.000  Zr
  Zr43     1.0000 0.24996  0.25002  0.25004  Biso   1.000  Zr
  Zr44     1.0000 0.37495  0.37501  0.37505  Biso   1.000  Zr
  Zr45     1.0000 0.24991  0.24996  0.49995  Biso   1.000  Zr
  Zr46     1.0000 0.37487  0.37495  0.62501  Biso   1.000  Zr
  Zr47     1.0000 0.24995  0.25008  0.74997  Biso   1.000  Zr
  Zr48     1.0000 0.37503  0.37497  0.87506  Biso   1.000  Zr
  Zr49     1.0000 0.25000  0.49988  0.99992  Biso   1.000  Zr
  Zr50     1.0000 0.37492  0.62502  0.12505  Biso   1.000  Zr
  Zr51     1.0000 0.25008  0.50003  0.25011  Biso   1.000  Zr
  Zr52     1.0000 0.37499  0.62491  0.37491  Biso   1.000  Zr
  Zr53     1.0000 0.24997  0.49989  0.50013  Biso   1.000  Zr
  Zr54     1.0000 0.37496  0.62513  0.62500  Biso   1.000  Zr
  Zr55     1.0000 0.25000  0.49994  0.75000  Biso   1.000  Zr
  Zr56     1.0000 0.37487  0.62503  0.87488  Biso   1.000  Zr
  Zr57     1.0000 0.25001  0.75010  0.00007  Biso   1.000  Zr
  Zr58     1.0000 0.37507  0.87507  0.12503  Biso   1.000  Zr
  Zr59     1.0000 0.25003  0.74999  0.25000  Biso   1.000  Zr
  Zr60     1.0000 0.37504  0.87500  0.37511  Biso   1.000  Zr
  Zr61     1.0000 0.25005  0.74998  0.49999  Biso   1.000  Zr
  Zr62     1.0000 0.37498  0.87499  0.62518  Biso   1.000  Zr
  Zr63     1.0000 0.24999  0.75003  0.75004  Biso   1.000  Zr
  Zr64     1.0000 0.37501  0.87498  0.87503  Biso   1.000  Zr
  Zr65     1.0000 0.49996  0.00009  0.99989  Biso   1.000  Zr
  Zr66     1.0000 0.62491  0.12496  0.12499  Biso   1.000  Zr
  Zr67     1.0000 0.50006  0.00002  0.24988  Biso   1.000  Zr
  Zr68     1.0000 0.62495  0.12492  0.37503  Biso   1.000  Zr
  Zr69     1.0000 0.49991  0.00010  0.50006  Biso   1.000  Zr
  Zr70     1.0000 0.62500  0.12489  0.62508  Biso   1.000  Zr
  Zr71     1.0000 0.49999  0.00008  0.74997  Biso   1.000  Zr
  Zr72     1.0000 0.62499  0.12499  0.87493  Biso   1.000  Zr
  Zr73     1.0000 0.49983  0.25005  0.00008  Biso   1.000  Zr
  Zr74     1.0000 0.62507  0.37489  0.12500  Biso   1.000  Zr
  Zr75     1.0000 0.49998  0.25003  0.25004  Biso   1.000  Zr
  Zr76     1.0000 0.62494  0.37501  0.37492  Biso   1.000  Zr
  Zr77     1.0000 0.50001  0.24991  0.49995  Biso   1.000  Zr
  Zr78     1.0000 0.62493  0.37507  0.62508  Biso   1.000  Zr
  Zr79     1.0000 0.49994  0.25002  0.75011  Biso   1.000  Zr
  Zr80     1.0000 0.62501  0.37500  0.87503  Biso   1.000  Zr
  Zr81     1.0000 0.49987  0.49990  0.00006  Biso   1.000  Zr
  Zr82     1.0000 0.62498  0.62483  0.12509  Biso   1.000  Zr
  Zr83     1.0000 0.50008  0.49998  0.25018  Biso   1.000  Zr
  Zr84     1.0000 0.62492  0.62501  0.37514  Biso   1.000  Zr
  Zr85     1.0000 0.49993  0.49994  0.49981  Biso   1.000  Zr
  Zr86     1.0000 0.62497  0.62493  0.62492  Biso   1.000  Zr
  Zr87     1.0000 0.49995  0.49999  0.75002  Biso   1.000  Zr
  Zr88     1.0000 0.62503  0.62481  0.87502  Biso   1.000  Zr
  Zr89     1.0000 0.49997  0.75001  0.00016  Biso   1.000  Zr
  Zr90     1.0000 0.62499  0.87490  0.12513  Biso   1.000  Zr
  Zr91     1.0000 0.50000  0.75020  0.24993  Biso   1.000  Zr
  Zr92     1.0000 0.62499  0.87494  0.37496  Biso   1.000  Zr
  Zr93     1.0000 0.49990  0.74992  0.49995  Biso   1.000  Zr
  Zr94     1.0000 0.62483  0.87494  0.62504  Biso   1.000  Zr
  Zr95     1.0000 0.50003  0.75015  0.74996  Biso   1.000  Zr
  Zr96     1.0000 0.62492  0.87509  0.87493  Biso   1.000  Zr
  Zr97     1.0000 0.74999  0.00010  0.00004  Biso   1.000  Zr
  Zr98     1.0000 0.87517  0.12495  0.12497  Biso   1.000  Zr
  Zr99     1.0000 0.75002  0.99988  0.24987  Biso   1.000  Zr
  Zr100    1.0000 0.87501  0.12499  0.37481  Biso   1.000  Zr
  Zr101    1.0000 0.74986  0.99999  0.49987  Biso   1.000  Zr
  Zr102    1.0000 0.87490  0.12495  0.62508  Biso   1.000  Zr
  Zr103    1.0000 0.75012  0.99997  0.74998  Biso   1.000  Zr
  Zr104    1.0000 0.87508  0.12511  0.87495  Biso   1.000  Zr
  Zr105    1.0000 0.75010  0.25006  0.99998  Biso   1.000  Zr
  Zr106    1.0000 0.87500  0.37505  0.12500  Biso   1.000  Zr
  Zr107    1.0000 0.74998  0.24996  0.25006  Biso   1.000  Zr
  Zr108    1.0000 0.87507  0.37491  0.37496  Biso   1.000  Zr
  Zr109    1.0000 0.75011  0.24996  0.49995  Biso   1.000  Zr
  Zr110    1.0000 0.87491  0.37514  0.62508  Biso   1.000  Zr
  Zr111    1.0000 0.75011  0.24999  0.74985  Biso   1.000  Zr
  Zr112    1.0000 0.87502  0.37492  0.87488  Biso   1.000  Zr
  Zr113    1.0000 0.74992  0.50008  0.00001  Biso   1.000  Zr
  Zr114    1.0000 0.87498  0.62498  0.12498  Biso   1.000  Zr
  Zr115    1.0000 0.75000  0.49991  0.24998  Biso   1.000  Zr
  Zr116    1.0000 0.87505  0.62495  0.37494  Biso   1.000  Zr
  Zr117    1.0000 0.75013  0.50008  0.49993  Biso   1.000  Zr
  Zr118    1.0000 0.87497  0.62499  0.62503  Biso   1.000  Zr
  Zr119    1.0000 0.75011  0.49991  0.74993  Biso   1.000  Zr
  Zr120    1.0000 0.87501  0.62499  0.87495  Biso   1.000  Zr
  Zr121    1.0000 0.74998  0.74997  0.00015  Biso   1.000  Zr
  Zr122    1.0000 0.87506  0.87507  0.12502  Biso   1.000  Zr
  Zr123    1.0000 0.74996  0.75005  0.25008  Biso   1.000  Zr
  Zr124    1.0000 0.87505  0.87494  0.37509  Biso   1.000  Zr
  Zr125    1.0000 0.74988  0.75021  0.49993  Biso   1.000  Zr
  Zr126    1.0000 0.87508  0.87503  0.62515  Biso   1.000  Zr
  Zr127    1.0000 0.75017  0.75002  0.74993  Biso   1.000  Zr
  Zr128    1.0000 0.87513  0.87501  0.87493  Biso   1.000  Zr
